Circuit: * C:\Users\robyr\Documents\GitHub\CPSA_project_infineon\ProjectSchematic\GOOD.asc

Direct Newton iteration failed to find .op point.  (Use ".option noopiter" to skip.)
Starting Gmin stepping
Gmin = 10
Gmin = 1.07374
Gmin = 0.115292
Gmin = 0.0123794
Gmin = 0.00132923
Gmin = 0.000142725
Gmin = 1.5325e-005
Gmin = 1.6455e-006
Gmin = 1.76685e-007
Gmin = 1.89714e-008
Gmin = 2.03704e-009
Gmin = 2.18725e-010
Gmin = 2.34854e-011
Gmin = 2.52173e-012
Gmin = 2.70769e-013
Gmin = 0
Gmin stepping succeeded in finding the operating point.

Heightened Def Con from 7.003e-005 to 7.003e-005

Date: Wed Jun 23 17:31:24 2021
Total elapsed time: 12.754 seconds.

tnom = 27
temp = 27
method = modified trap
totiter = 457708
traniter = 457263
tranpoints = 115400
accept = 84994
rejected = 30407
matrix size = 113
fillins = 15
solver = Normal
Thread vector: 8.6/6.0[6] 8.4/4.7[6] 2.1/5.0[1] 0.3/1.6[1]  2592/500
Matrix Compiler1: 4.53 KB object code size  1.5/0.9/[0.4]
Matrix Compiler2: 7.55 KB object code size  0.7/1.0/[0.5]

