Circuit: * C:\Users\robyr\Documents\GitHub\CPSA_project_infineon\ProjectSchematic\GOOD.asc

WARNING: Node NC_01 is floating.

WARNING: Less than two connections to node NC_01.  This node is used by C6.
Direct Newton iteration failed to find .op point.  (Use ".option noopiter" to skip.)
Starting Gmin stepping
Gmin = 10
Gmin = 1.07374
Gmin = 0.115292
Gmin = 0.0123794
Gmin = 0.00132923
Gmin = 0.000142725
Gmin = 1.5325e-005
Gmin = 1.6455e-006
Gmin = 1.76685e-007
Gmin = 1.89714e-008
Gmin = 2.03704e-009
Gmin = 2.18725e-010
Gmin = 2.34854e-011
Gmin = 2.52173e-012
Gmin = 2.70769e-013
Gmin = 0
Gmin stepping succeeded in finding the operating point.


Date: Thu Jun 24 16:22:43 2021
Total elapsed time: 29.493 seconds.

tnom = 27
temp = 27
method = modified trap
totiter = 1043105
traniter = 1042660
tranpoints = 265887
accept = 196467
rejected = 69420
matrix size = 114
fillins = 15
solver = Normal
Thread vector: 9.6/12.5[6] 8.6/4.9[6] 1.9/4.2[1] 0.3/1.1[1]  2592/500
Matrix Compiler1: 4.54 KB object code size  2.8/0.9/[0.3]
Matrix Compiler2: 7.59 KB object code size  0.7/1.1/[0.5]

