Circuit: * C:\Users\robyr\Documents\GitHub\CPSA_project_infineon\ProjectSchematic\GOOD.asc

WARNING: Less than two connections to node NC_01.  This node is used by R_I/O.
Direct Newton iteration failed to find .op point.  (Use ".option noopiter" to skip.)
Starting Gmin stepping
Gmin = 10
Gmin = 1.07374
Gmin = 0.115292
Gmin = 0.0123794
Gmin = 0.00132923
Gmin = 0.000142725
Gmin = 1.5325e-005
Gmin = 1.6455e-006
Gmin = 1.76685e-007
Gmin = 1.89714e-008
Gmin = 2.03704e-009
Gmin = 2.18725e-010
Gmin = 2.34854e-011
Gmin = 2.52173e-012
Gmin = 2.70769e-013
Gmin = 0
Gmin stepping succeeded in finding the operating point.


Date: Fri Jun 25 10:49:59 2021
Total elapsed time: 28.267 seconds.

tnom = 27
temp = 27
method = modified trap
totiter = 1043566
traniter = 1043122
tranpoints = 266402
accept = 196764
rejected = 69638
matrix size = 114
fillins = 15
solver = Normal
Thread vector: 18.0/12.6[6] 9.5/2.6[6] 3.0/3.2[1] 0.3/1.8[1]  2592/500
Matrix Compiler1: 4.54 KB object code size  2.1/1.7/[0.7]
Matrix Compiler2: 7.59 KB object code size  0.7/1.2/[0.6]

