Circuit: * C:\Users\robyr\Documents\GitHub\CPSA_project_infineon\ProjectSchematic\GOOD.asc

Direct Newton iteration failed to find .op point.  (Use ".option noopiter" to skip.)
Starting Gmin stepping
Gmin = 10
Gmin = 1.07374
Gmin = 0.115292
Gmin = 0.0123794
Gmin = 0.00132923
Gmin = 0.000142725
Gmin = 1.5325e-005
Gmin = 1.6455e-006
Gmin = 1.76685e-007
Gmin = 1.89714e-008
Gmin = 2.03704e-009
Gmin = 2.18725e-010
Gmin = 2.34854e-011
Gmin = 2.52173e-012
Gmin = 2.70769e-013
Gmin = 0
Gmin stepping succeeded in finding the operating point.


Date: Wed Jun 23 19:08:31 2021
Total elapsed time: 21.928 seconds.

tnom = 27
temp = 27
method = modified trap
totiter = 822320
traniter = 821875
tranpoints = 209354
accept = 154607
rejected = 54747
matrix size = 113
fillins = 15
solver = Normal
Thread vector: 16.7/9.7[6] 6.7/4.3[6] 3.8/1.9[5] 0.3/17.3[1]  2592/500
Matrix Compiler1: 4.53 KB object code size  1.3/1.0/[0.4]
Matrix Compiler2: 7.55 KB object code size  1.2/2.9/[0.5]

