Circuit: * C:\Users\robyr\Documents\GitHub\CPSA_project_infineon\ProjectSchematic\GOODv3.asc

Direct Newton iteration failed to find .op point.  (Use ".option noopiter" to skip.)
Starting Gmin stepping
Gmin = 10
Gmin = 1.07374
Gmin = 0.115292
Gmin = 0.0123794
Gmin = 0.00132923
Gmin = 0.000142725
Gmin = 1.5325e-005
Gmin = 1.6455e-006
Gmin = 1.76685e-007
Gmin = 1.89714e-008
Gmin = 2.03704e-009
Gmin = 2.18725e-010
Gmin = 2.34854e-011
Gmin = 2.52173e-012
Gmin = 2.70769e-013
Gmin = 0
Gmin stepping succeeded in finding the operating point.


Date: Tue Jun 29 09:32:37 2021
Total elapsed time: 114.276 seconds.

tnom = 27
temp = 27
method = modified trap
totiter = 1886989
traniter = 1886571
tranpoints = 508343
accept = 375501
rejected = 132842
matrix size = 213
fillins = 21
solver = Normal
Thread vector: 61.4/21.4[7] 27.9/18.7[7] 4.1/10.6[1] 0.6/4.8[1]  2592/500
Matrix Compiler1: 6.34 KB object code size  5.1/2.3/[1.2]
Matrix Compiler2: 13.55 KB object code size  3.8/6.3/[1.0]

