Circuit: * C:\Users\robyr\Documents\GitHub\CPSA_project_infineon\1086-3.3.asc

Direct Newton iteration for .op point succeeded.

Date: Sun Jun 27 16:24:19 2021
Total elapsed time: 0.034 seconds.

tnom = 27
temp = 27
method = modified trap
totiter = 2139
traniter = 2128
tranpoints = 1051
accept = 1049
rejected = 2
matrix size = 7
fillins = 4
solver = Normal
Matrix Compiler1: 1.30 KB object code size  0.2/0.1/[0.1]
Matrix Compiler2: off  [0.1]/0.1/0.1

