Circuit: * D:\Università - magistrale\CPSA\CPSA_project_infineon\1965-3.3.asc

Direct Newton iteration for .op point succeeded.

Date: Tue Jun 22 18:12:46 2021
Total elapsed time: 0.462 seconds.

tnom = 27
temp = 27
method = modified trap
totiter = 3443
traniter = 3421
tranpoints = 1547
accept = 1439
rejected = 108
matrix size = 14
fillins = 4
solver = Normal
Matrix Compiler1: 1.36 KB object code size  2.2/1.3/[0.6]
Matrix Compiler2: 1.47 KB object code size  0.9/1.5/[0.9]

