Circuit: * C:\Users\robyr\Documents\GitHub\CPSA_project_infineon\3310S.asc

Direct Newton iteration for .op point succeeded.
