Circuit: * C:\Users\robyr\Documents\GitHub\CPSA_project_infineon\CPSA_prject\CPSA_project.asc

Direct Newton iteration failed to find .op point.  (Use ".option noopiter" to skip.)
Starting Gmin stepping
Gmin = 10
Gmin = 1.07374
Gmin = 0.115292
Gmin = 0.0123794
Gmin = 0.00132923
Gmin = 0.000142725
Gmin = 1.5325e-005
Gmin = 1.6455e-006
Gmin = 1.76685e-007
Gmin = 1.89714e-008
Gmin = 2.03704e-009
Gmin = 2.18725e-010
Gmin = 2.34854e-011
Gmin = 2.52173e-012
Gmin = 2.70769e-013
Gmin = 0
Gmin stepping succeeded in finding the operating point.


Date: Sat Jul 03 15:18:45 2021
Total elapsed time: 209.866 seconds.

tnom = 27
temp = 27
method = modified trap
totiter = 2113891
traniter = 2113472
tranpoints = 570112
accept = 422808
rejected = 147304
matrix size = 331
fillins = 36
solver = Normal
Thread vector: 67.1/27.6[12] 30.5/14.2[12] 69.7/13.8[12] 0.8/11.6[1]  2592/500
Matrix Compiler1: 11.47 KB object code size  6.8/5.4/[1.3]
Matrix Compiler2: 21.64 KB object code size  5.6/7.7/[1.5]

