Circuit: * C:\Users\robyr\Documents\GitHub\CPSA_project_infineon\CPSA_prject\CPSA_project.asc

Direct Newton iteration failed to find .op point.  (Use ".option noopiter" to skip.)
Starting Gmin stepping
Gmin = 10
Gmin = 1.07374
Gmin = 0.115292
Gmin = 0.0123794
Gmin = 0.00132923
Gmin = 0.000142725
Gmin = 1.5325e-005
Gmin = 1.6455e-006
Gmin = 1.76685e-007
Gmin = 1.89714e-008
Gmin = 2.03704e-009
Gmin = 2.18725e-010
Gmin = 2.34854e-011
Gmin = 2.52173e-012
Gmin = 2.70769e-013
Gmin = 0
Gmin stepping succeeded in finding the operating point.


Date: Wed Jun 30 18:45:28 2021
Total elapsed time: 249.351 seconds.

tnom = 27
temp = 27
method = modified trap
totiter = 2135474
traniter = 2135055
tranpoints = 577073
accept = 428210
rejected = 148863
matrix size = 331
fillins = 36
solver = Normal
Thread vector: 89.0/30.8[12] 38.2/19.3[9] 41.7/10.6[12] 0.8/17.2[1]  2592/500
Matrix Compiler1: 11.47 KB object code size  10.0/4.6/[1.6]
Matrix Compiler2: 21.64 KB object code size  7.4/7.7/[1.4]

